[General]
network = Tictoc1
record-eventlog = true
sim-time-limit = 30s