[General]
network = Tictoc1
Tictoc1.tic.delayTime = exponential(2s)
Tictoc1.toc.delayTime = exponential(0.1s)
Tictoc1.*.lossProbability = 0.1
record-eventlog = true
sim-time-limit = 100s