[General]
network = Tictoc1
Tictoc1.tic.delayTime = exponential(1s)
Tictoc1.toc.delayTime = exponential(0.1s)
record-eventlog = true
sim-time-limit = 30s