[General]
network = Tictoc1
Tictoc1.tic.delayTime = exponetial(1s)
Tictoc1.toc.delayTime = exponetial(0.1s)
record-eventlog = true
sim-time-limit = 30s