[General]
network = Tictoc1
Tictoc1.tic.delayTime = exponential(2s) # random transmission intervall
Tictoc1.toc.delayTime = exponential(0.1s)
Tictoc1.*.lossProbability = 0.99
record-eventlog = true
sim-time-limit = 100s