[General]
network = Multihop
Multihop.node[*].delayTime = exponential(0.1s)
#Multihop.node[0].delayTime = (1s)

record-eventlog = true
sim-time-limit = 200s