[General]
network = Multihop
Multihop.node[*].transmissionTime = uniform(1s, 2s)
Multihop.node[*].delayTime = uniform(0.01s, 0.2s)
Multihop.node[*].processingTime = exponential(0.01s)
Multihop.node[*].lossProbability = 0.90


record-eventlog = true
sim-time-limit = 200s
repeat=5