[General]
network = Multihop
Multihop.node[*].delayTime = exponential(0.1s)
Multihop.node[*].processingTime = exponential(0.05s)


record-eventlog = true
sim-time-limit = 200s